ipss.QA/testData/psse/neiso_model_v30.raw
 0,    100.00, 30, 0, 0, 60.00       / July 29, 2008 15:37:47
Original source NETMOM data came from empprda RTNET EMS at 06/09/2008 17:12:59
(Solution Time Mon Jun 09 17:12:58 EDT 2008) with a Network Data Description of:
    1,'0000        ', 345.0000,1,     0.000,     0.000,   1,   1,1.0384173,   3.08000,   1
    3,'0001        ', 345.0000,2,     0.000,     0.000,   1,   1,1.0384173,   3.08000,   1
   14,'0002        ', 345.0000,4,     0.000,     0.000,   1,   1,1.0000000,   0.00000,   1
   15,'0003        ', 345.0000,4,     0.000,     0.000,   1,   1,1.0000000,   0.00000,   1
   16,'0004        ', 345.0000,1,     0.000,     0.000,   1,   1,1.0381972,   1.39000,   1
   17,'0005        ', 345.0000,1,     0.000,     0.000,   1,   1,1.0381972,   1.39000,   1
   18,'0006        ', 345.0000,4,     0.000,     0.000,   1,   1,1.0000000,   0.00000,   1
   19,'0007        ', 345.0000,4,     0.000,     0.000,   1,   1,1.0000000,   0.00000,   1
   22,'0008        ', 345.0000,1,     0.000,     0.000,   1,   1,1.0381972,   1.39000,   1
   24,'0009        ', 345.0000,1,     0.000,     0.000,   1,   1,1.0381972,   1.39000,   1
   26,'0010        ', 345.0000,1,     0.000,     0.000,   1,   1,1.0381972,   1.39000,   1
   27,'0011        ', 345.0000,1,     0.000,     0.000,   1,   1,1.0381972,   1.39000,   1
   28,'0012        ', 115.0000,1,     0.000,     0.000,   1,   1,1.0678695,   3.67000,   1
   29,'0013        ', 115.0000,1,     0.000,     0.000,   1,   1,1.0678695,   3.67000,   1
   31,'0014        ', 115.0000,1,     0.000,     0.000,   1,   1,1.0678695,   3.67000,   1
   32,'0015        ', 115.0000,1,     0.000,     0.000,   1,   1,1.0678695,   3.67000,   1
   34,'0016        ', 115.0000,1,     0.000,     0.000,   1,   1,1.0678695,   3.67000,   1
   35,'0017        ', 115.0000,1,     0.000,     0.000,   1,   1,1.0678695,   3.67000,   1
   37,'0018        ', 115.0000,1,     0.000,     0.000,   1,   1,1.0678695,   3.67000,   1
   38,'0019        ', 115.0000,1,     0.000,     0.000,   1,   1,1.0678695,   3.67000,   1
   39,'0020        ', 115.0000,1,     0.000,     0.000,   1,   1,1.0678695,   3.67000,   1
   40,'0021        ', 115.0000,4,     0.000,     0.000,   1,   1,1.0000000,   0.00000,   1
   41,'0022        ', 115.0000,4,     0.000,     0.000,   1,   1,1.0000000,   0.00000,   1
   42,'0023        ', 115.0000,4,     0.000,     0.000,   1,   1,1.0000000,   0.00000,   1
   48,'0024        ',  13.8000,1,     0.000,     0.000,   1,   1,1.0294927,   1.98000,   1
   50,'0025        ',  13.8000,1,     0.000,     0.000,   1,   1,1.0271739,   4.27000,   1
   52,'0026        ',  13.8000,1,     0.000,     0.000,   1,   1,1.0294927,   1.98000,   1
   53,'0027        ',  13.8000,4,     0.000,     0.000,   1,   1,1.0000000,   0.00000,   1
   54,'0028        ',   1.0000,1,     0.000,     0.000,   1,   1,1.0549999,   1.98000,   1
   55,'0029        ',   1.0000,1,     0.000,     0.000,   1,   1,1.0270000,   4.27000,   1
   57,'0030        ', 115.0000,4,     0.000,     0.000,   1,   1,1.0000000,   0.00000,   1
   58,'0031        ', 115.0000,1,     0.000,     0.000,   1,   1,1.0247391,   6.37000,   1
   62,'0032        ', 115.0000,2,     0.000,     0.000,   1,   1,1.0275826,   7.15000,   1
   63,'0033        ', 115.0000,4,     0.000,     0.000,   1,   1,1.0000000,   0.00000,   1
   64,'0034        ', 115.0000,1,     0.000,     0.000,   1,   1,1.0275826,   7.15000,   1
   66,'0035        ', 115.0000,1,     0.000,     0.000,   1,   1,1.0241479,   6.34000,   1
   75,'0036        ',  46.0000,2,     0.000,     0.000,   1,   1,1.0489565,   4.08000,   1
   76,'0037        ',  46.0000,1,     0.000,     0.000,   1,   1,0.9901956,   1.61000,   1
   81,'0038        ',  46.0000,4,     0.000,     0.000,   1,   1,1.0000000,   0.00000,   1
   84,'0039        ', 115.0000,2,     0.000,     0.000,   1,   1,1.0360174,   6.54000,   1
   92,'0040        ', 115.0000,1,     0.000,     0.000,   1,   1,1.0614434,   5.00000,   1
   94,'0041        ', 115.0000,1,     0.000,     0.000,   1,   1,1.0614434,   5.00000,   1
   97,'0042        ', 115.0000,1,     0.000,     0.000,   1,   1,1.0614434,   5.00000,   1
   98,'0043        ', 115.0000,1,     0.000,     0.000,   1,   1,1.0614434,   5.00000,   1
   99,'0044        ', 115.0000,1,     0.000,     0.000,   1,   1,1.0614434,   5.00000,   1
  100,'0045        ', 115.0000,1,     0.000,     0.000,   1,   1,1.0614434,   5.00000,   1
  106,'0046        ',  46.0000,4,     0.000,     0.000,   1,   1,1.0000000,   0.00000,   1
  112,'0047        ',  46.0000,2,     0.000,     0.000,   1,   1,1.0437826,   3.13000,   1
  116,'0048        ',  18.0000,2,     0.000,     0.000,   1,   1,1.0523889,   8.04000,   1
  117,'0049        ',  18.0000,1,     0.000,     0.000,   1,   1,1.0523889,   8.04000,   1
  118,'0050        ',  18.0000,2,     0.000,     0.000,   1,   1,1.0537778,   9.32000,   1
  119,'0051        ',  18.0000,2,     0.000,     0.000,   1,   1,1.0524445,   8.02000,   1
  120,'0052        ',  18.0000,1,     0.000,     0.000,   1,   1,1.0524445,   8.02000,   1
  123,'0053        ', 115.0000,2,     0.000,     0.000,   1,   1,1.0698522,   3.92000,   1
  124,'0054        ', 115.0000,1,     0.000,     0.000,   1,   1,1.0577826,   3.71000,   1
  129,'0055        ', 115.0000,1,     0.000,     0.000,   1,   1,1.0484434,   3.01000,   1
  130,'0056        ', 115.0000,1,     0.000,     0.000,   1,   1,1.0484434,   3.01000,   1
  132,'0057        ', 115.0000,1,     0.000,     0.000,   1,   1,1.0484434,   3.01000,   1
  135,'0058        ', 115.0000,1,     0.000,     0.000,   1,   1,1.0553043,   4.22000,   1
  141,'0059        ', 115.0000,1,     0.000,     0.000,   1,   1,1.0613130,   5.38000,   1
  144,'0060        ', 115.0000,2,     0.000,     0.000,   1,   1,1.0613130,   5.38000,   1
  147,'0061        ', 115.0000,1,     0.000,     0.000,   1,   1,1.0474435,   2.94000,   1
  155,'0062        ',  34.5000,2,     0.000,     0.000,   1,   1,1.1713623,   0.13000,   1
  156,'0063        ',  34.5000,4,     0.000,     0.000,   1,   1,1.0000000,   0.00000,   1
  158,'0064        ', 115.0000,1,     0.000,     0.000,   1,   1,1.0632087,   5.75000,   1
  163,'0065        ',  34.5000,2,     0.000,     0.000,   1,   1,1.1406376,   6.93000,   1
  164,'0066        ',  34.5000,4,     0.000,     0.000,   1,   1,1.0000000,   0.00000,   1
  166,'0067        ',  34.5000,1,     0.000,     0.000,   1,   1,1.1406376,   6.93000,   1
  167,'0068        ',  34.5000,1,     0.000,     0.000,   1,   1,1.0627246,   5.75000,   1
  169,'0069        ', 115.0000,1,     0.000,     0.000,   1,   1,1.0612174,   5.34000,   1
  171,'0070        ', 115.0000,1,     0.000,     0.000,   1,   1,1.0602957,   5.19000,   1
  177,'0071        ', 345.0000,1,     0.000,     0.000,   1,   2,1.0364957, -14.53000,   1
  178,'0072        ', 345.0000,1,     0.000,     0.000,   1,   2,1.0364957, -14.53000,   1
  181,'0073        ', 345.0000,1,     0.000,     0.000,   1,   2,1.0364957, -14.53000,   1
  182,'0074        ', 345.0000,1,     0.000,     0.000,   1,   2,1.0364957, -14.53000,   1
  183,'0075        ', 345.0000,1,     0.000,     0.000,   1,   2,1.0364957, -14.53000,   1
  189,'0076        ', 115.0000,4,     0.000,     0.000,   1,   2,1.0000000,   0.00000,   1
  190,'0077        ', 115.0000,4,     0.000,     0.000,   1,   2,1.0000000,   0.00000,   1
  192,'0078        ', 115.0000,1,     0.000,     0.000,   1,   2,1.0241739, -20.43000,   1
  196,'0079        ', 115.0000,1,     0.000,     0.000,   1,   2,1.0241739, -20.43000,   1
  197,'0080        ', 115.0000,1,     0.000,     0.000,   1,   2,1.0241739, -20.43000,   1
  198,'0081        ', 115.0000,1,     0.000,     0.000,   1,   2,1.0241739, -20.43000,   1
  199,'0082        ', 115.0000,1,     0.000,     0.000,   1,   2,1.0241739, -20.43000,   1
  200,'0083        ', 115.0000,1,     0.000,     0.000,   1,   2,1.0241739, -20.43000,   1
  212,'0084        ', 115.0000,4,     0.000,     0.000,   1,   2,1.0000000,   0.00000,   1
  214,'0085        ', 345.0000,4,     0.000,     0.000,   1,   2,1.0000000,   0.00000,   1
  215,'0086        ', 345.0000,4,     0.000,     0.000,   1,   2,1.0000000,   0.00000,   1
  217,'0087        ', 345.0000,1,     0.000,     0.000,   1,   2,1.0352696, -15.04000,   1
  220,'0088        ', 115.0000,1,     0.000,     0.000,   1,   2,1.0303565, -20.36000,   1
  222,'0089        ', 115.0000,1,     0.000,     0.000,   1,   2,1.0303565, -20.36000,   1
  224,'0090        ', 115.0000,1,     0.000,     0.000,   1,   2,1.0303565, -20.36000,   1
  230,'0091        ', 115.0000,1,     0.000,     0.000,   1,   2,1.0303565, -20.36000,   1
  232,'0092        ', 115.0000,1,     0.000,     0.000,   1,   2,1.0303565, -20.36000,   1
  234,'0093        ', 115.0000,1,     0.000,     0.000,   1,   2,1.0303565, -20.36000,   1
  236,'0094        ', 345.0000,1,     0.000,     0.000,   1,   2,1.0434841, -14.53000,   1
  238,'0095        ', 345.0000,1,     0.000,     0.000,   1,   2,1.0369536, -14.53000,   1
  242,'0096        ', 345.0000,1,     0.000,     0.000,   1,   2,1.0369536, -14.53000,   1
  246,'0097        ', 345.0000,1,     0.000,     0.000,   1,   2,1.0369536, -14.53000,   1
  247,'0098        ', 345.0000,1,     0.000,     0.000,   1,   2,1.0369536, -14.53000,   1
  252,'0099        ', 345.0000,1,     0.000,     0.000,   1,   2,1.0369536, -14.53000,   1
  253,'0100        ', 345.0000,1,     0.000,     0.000,   1,   2,1.0369536, -14.53000,   1
  254,'0101        ', 345.0000,1,     0.000,     0.000,   1,   2,1.0369536, -14.53000,   1
  261,'0102        ', 115.0000,4,     0.000,     0.000,   1,   2,1.0000000,   0.00000,   1
  264,'0103        ', 115.0000,4,     0.000,     0.000,   1,   2,1.0000000,   0.00000,   1
  265,'0104        ', 115.0000,1,     0.000,     0.000,   1,   2,1.0403217, -19.27000,   1
  267,'0105        ', 115.0000,1,     0.000,     0.000,   1,   2,1.0403217, -19.27000,   1
  272,'0106        ', 115.0000,1,     0.000,     0.000,   1,   2,1.0403217, -19.27000,   1
  273,'0107        ', 115.0000,1,     0.000,     0.000,   1,   2,1.0403217, -19.27000,   1
  274,'0108        ', 115.0000,1,     0.000,     0.000,   1,   2,1.0403217, -19.27000,   1
  278,'0109        ', 115.0000,1,     0.000,     0.000,   1,   2,1.0403217, -19.27000,   1
  281,'0110        ',  13.8000,1,     0.000,     0.000,   1,   2,0.9986232, -27.16000,   1
  282,'0111        ',  13.8000,1,     0.000,     0.000,   1,   2,0.9986232, -27.17000,   1
  283,'0112        ',  13.8000,1,     0.000,     0.000,   1,   2,0.9989855, -27.17000,   1
  288,'0113        ', 345.0000,1,     0.000,     0.000,   1,   2,1.0377159, -14.45000,   1
  291,'0114        ', 345.0000,1,     0.000,     0.000,   1,   2,1.0377159, -14.45000,   1
  292,'0115        ', 345.0000,1,     0.000,     0.000,   1,   2,1.0377159, -14.45000,   1
  296,'0116        ', 345.0000,1,     0.000,     0.000,   1,   2,1.0377159, -14.45000,   1
  297,'0117        ', 345.0000,1,     0.000,     0.000,   1,   2,1.0377159, -14.45000,   1
  300,'0118        ', 345.0000,1,     0.000,     0.000,   1,   2,1.0377159, -14.45000,   1
  301,'0119        ', 345.0000,1,     0.000,     0.000,   1,   2,1.0377159, -14.45000,   1
  304,'0120        ', 345.0000,1,     0.000,     0.000,   1,   2,1.0377159, -14.45000,   1
  307,'0121        ', 345.0000,1,     0.000,     0.000,   1,   2,1.0377218, -14.45000,   1
  308,'0122        ', 345.0000,1,     0.000,     0.000,   1,   2,1.0377159, -14.45000,   1
  310,'0123        ', 345.0000,1,     0.000,     0.000,   1,   2,1.0377159, -14.45000,   1
  312,'0124        ', 345.0000,1,     0.000,     0.000,   1,   2,1.0377159, -14.45000,   1
  317,'0125        ', 115.0000,1,     0.000,     0.000,   1,   2,1.0140347, -19.27000,   1
  324,'0126        ', 115.0000,1,     0.000,     0.000,   1,   2,1.0140347, -19.27000,   1
  330,'0127        ', 115.0000,1,     0.000,     0.000,   1,   2,1.0373826, -20.01000,   1
  331,'0128        ', 115.0000,4,     0.000,     0.000,   1,   2,1.0000000,   0.00000,   1
  333,'0129        ', 115.0000,1,     0.000,     0.000,   1,   2,1.0373826, -20.01000,   1
  335,'0130        ', 115.0000,1,     0.000,     0.000,   1,   2,1.0373826, -20.01000,   1
  346,'0131        ', 115.0000,1,     0.000,     0.000,   1,   2,1.0140347, -19.27000,   1
  347,'0132        ', 115.0000,1,     0.000,     0.000,   1,   2,1.0140347, -19.27000,   1
  348,'0133        ', 115.0000,1,     0.000,     0.000,   1,   2,1.0373826, -20.01000,   1
  349,'0134        ', 115.0000,1,     0.000,     0.000,   1,   2,1.0373826, -20.01000,   1
  350,'0135        ', 115.0000,1,     0.000,     0.000,   1,   2,1.0373826, -20.01000,   1
  352,'0136        ', 115.0000,1,     0.000,     0.000,   1,   2,1.0140347, -19.27000,   1
  354,'0137        ', 115.0000,1,     0.000,     0.000,   1,   2,1.0373826, -20.01000,   1
  355,'0138        ', 115.0000,1,     0.000,     0.000,   1,   2,1.0373826, -20.01000,   1
  356,'0139        ', 115.0000,1,     0.000,     0.000,   1,   2,1.0373826, -20.01000,   1
  357,'0140        ', 115.0000,1,     0.000,     0.000,   1,   2,1.0373826, -20.01000,   1
  361,'0141        ',  24.0000,4,     0.000,     0.000,   1,   2,1.0000000,   0.00000,   1
  363,'0142        ',  24.0000,1,     0.000,     0.000,   1,   2,1.0024583, -22.26000,   1
  367,'0143        ',  22.0000,2,     0.000,     0.000,   1,   2,1.0107273, -10.58000,   1
  368,'0144        ',  18.0000,1,     0.000,     0.000,   1,   2,1.0373889, -20.01000,   1
  369,'0145        ',  18.0000,1,     0.000,     0.000,   1,   2,1.0373889, -20.01000,   1
  371,'0146        ',  18.0000,2,     0.000,     0.000,   1,   2,1.0362222,  -9.01000,   1
  372,'0147        ',  18.0000,4,     0.000,     0.000,   1,   2,1.0000000,   0.00000,   1
  373,'0148        ',  18.0000,1,     0.000,     0.000,   1,   2,1.0741111, -20.91000,   1
  374,'0149        ',  18.0000,4,     0.000,     0.000,   1,   2,1.0000000,   0.00000,   1
  376,'0150        ',  18.0000,4,     0.000,     0.000,   1,   2,1.0000000,   0.00000,   1
  382,'0151        ',  16.0000,2,     0.000,     0.000,   1,   2,1.0190625, -15.69000,   1
  383,'0152        ',  16.0000,1,     0.000,     0.000,   1,   2,1.0190625, -15.69000,   1
  384,'0153        ',  16.0000,2,     0.000,     0.000,   1,   2,1.0204999, -14.84000,   1
  385,'0154        ',  16.0000,1,     0.000,     0.000,   1,   2,1.0204999, -14.84000,   1
  386,'0155        ',  16.0000,2,     0.000,     0.000,   1,   2,1.0353125,  -9.49000,   1
  387,'0156        ',  16.0000,1,     0.000,     0.000,   1,   2,1.0353125,  -9.49000,   1
  388,'0157        ',  16.0000,2,     0.000,     0.000,   1,   2,1.0353125,  -9.61000,   1
  389,'0158        ',  16.0000,1,     0.000,     0.000,   1,   2,1.0353125,  -9.61000,   1
  391,'0159        ',  18.1000,2,     0.000,     0.000,   1,   2,1.0116575, -13.62000,   1
  392,'0160        ',   1.0000,1,     0.000,     0.000,   1,   2,1.0230000, -20.91000,   1
  393,'0161        ',   1.0000,1,     0.000,     0.000,   1,   2,1.0230000, -20.91000,   1
  396,'0162        ', 345.0000,1,     0.000,     0.000,   1,   2,1.0258492, -10.37000,   1
  397,'0163        ', 345.0000,1,     0.000,     0.000,   1,   2,1.0258492, -10.37000,   1
  398,'0164        ', 345.0000,1,     0.000,     0.000,   1,   2,1.0258492, -10.37000,   1
  399,'0165        ', 345.0000,1,     0.000,     0.000,   1,   2,1.0258492, -10.37000,   1
  402,'0166        ',  22.8000,2,     0.000,     0.000,   1,   2,1.0099124,  -5.16000,   1
  403,'0167        ', 345.0000,1,     0.000,     0.000,   1,   2,1.0262724, -10.82000,   1
  407,'0168        ', 345.0000,1,     0.000,     0.000,   1,   2,1.0336870, -14.80000,   1
  408,'0169        ', 345.0000,1,     0.000,     0.000,   1,   2,1.0336870, -14.80000,   1
  409,'0170        ', 345.0000,1,     0.000,     0.000,   1,   2,1.0336870, -14.80000,   1
  410,'0171        ', 115.0000,1,     0.000,     0.000,   1,   2,1.0233217, -18.36000,   1
  415,'0172        ', 115.0000,1,     0.000,     0.000,   1,   2,1.0233217, -18.36000,   1
  419,'0173        ', 115.0000,1,     0.000,     0.000,   1,   2,1.0233217, -18.36000,   1
  420,'0174        ', 115.0000,1,     0.000,     0.000,   1,   2,1.0233217, -18.36000,   1
  421,'0175        ', 115.0000,1,     0.000,     0.000,   1,   2,1.0233217, -18.36000,   1
  422,'0176        ', 115.0000,1,     0.000,     0.000,   1,   2,1.0233217, -18.36000,   1
  423,'0177        ', 115.0000,1,     0.000,     0.000,   1,   2,1.0233217, -18.36000,   1
  424,'0178        ', 115.0000,1,     0.000,     0.000,   1,   2,1.0233217, -18.36000,   1
  425,'0179        ', 115.0000,1,     0.000,     0.000,   1,   2,1.0233217, -18.36000,   1
  427,'0180        ', 115.0000,1,     0.000,     0.000,   1,   2,1.0233217, -18.36000,   1
  433,'0181        ', 345.0000,4,     0.000,     0.000,   1,   2,1.0000000,   0.00000,   1
  434,'0182        ', 345.0000,1,     0.000,     0.000,   1,   2,1.3159014, -15.02000,   1
  435,'0183        ', 345.0000,1,     0.000,     0.000,   1,   2,1.2511536, -15.02000,   1
  436,'0184        ', 345.0000,1,     0.000,     0.000,   1,   2,1.0372986, -15.02000,   1
  437,'0185        ', 345.0000,1,     0.000,     0.000,   1,   2,1.0372986, -15.02000,   1
  438,'0186        ', 345.0000,1,     0.000,     0.000,   1,   2,1.0372986, -15.02000,   1
  440,'0187        ', 345.0000,1,     0.000,     0.000,   1,   2,1.0372986, -15.02000,   1
  442,'0188        ', 345.0000,4,     0.000,     0.000,   1,   2,1.0000000,   0.00000,   1
  443,'0189        ', 345.0000,1,     0.000,     0.000,   1,   2,1.0372986, -15.02000,   1
  445,'0190        ', 345.0000,4,     0.000,     0.000,   1,   2,1.0000000,   0.00000,   1
  450,'0191        ', 345.0000,1,     0.000,     0.000,   1,   2,1.0372986, -15.02000,   1
  452,'0192        ', 345.0000,1,     0.000,     0.000,   1,   2,1.0372986, -15.02000,   1
  454,'0193        ', 345.0000,1,     0.000,     0.000,   1,   2,1.0295537, -14.11000,   1
  458,'0194        ', 345.0000,1,     0.000,     0.000,   1,   2,1.0295537, -14.11000,   1
  459,'0195        ', 345.0000,1,     0.000,     0.000,   1,   2,1.0295537, -14.11000,   1
  460,'0196        ', 345.0000,1,     0.000,     0.000,   1,   2,1.0295537, -14.11000,   1
  461,'0197        ', 345.0000,4,     0.000,     0.000,   1,   2,1.0000000,   0.00000,   1
  462,'0198        ', 345.0000,1,     0.000,     0.000,   1,   2,1.0295537, -14.11000,   1
  463,'0199        ', 115.0000,1,     0.000,     0.000,   1,   2,1.0377131, -20.47000,   1
...
0 / END OF BUS DATA, BEGIN LOAD DATA
   24,'1 ',1,   1,   1,     0.000,     0.000,     0.000,     0.000,     0.000,    -0.000,   1
   39,'1 ',1,   1,   1,     0.000,     0.000,     0.000,     0.000,     0.000,    -0.000,   1
   63,'1 ',1,   1,   1,     0.000,     0.000,     0.000,     0.000,     0.000,    -0.000,   1
   75,'1 ',1,   1,   1,    20.782,     2.165,     0.000,     0.000,     0.000,    -0.000,   1
   76,'1 ',1,   1,   1,    14.114,    11.440,     0.000,     0.000,     0.000,    -0.000,   1
  112,'1 ',1,   1,   1,   126.849,    51.688,     0.000,     0.000,     0.000,    -0.000,   1
  141,'1 ',1,   1,   1,     1.065,    -0.011,     0.000,     0.000,     0.000,    -0.000,   1
  155,'1 ',1,   1,   1,    49.204,     9.877,     0.000,     0.000,     0.000,    -0.000,   1
  166,'1 ',1,   1,   1,    10.501,     0.421,     0.000,     0.000,     0.000,    -0.000,   1
  171,'1 ',1,   1,   1,    10.624,    -0.669,     0.000,     0.000,     0.000,    -0.000,   1
  192,'1 ',1,   1,   2,    30.338,     2.024,     0.000,     0.000,     0.000,    -0.000,   1
  192,' 2',1,   1,   2,    31.277,    -7.685,     0.000,     0.000,     0.000,    -0.000,   1
  192,' 3',1,   1,   2,    31.648,    -4.986,     0.000,     0.000,     0.000,    -0.000,   1
  192,' 4',1,   1,   2,    32.689,    15.123,     0.000,     0.000,     0.000,    -0.000,   1
  220,'1 ',1,   1,   2,     1.152,    24.314,     0.000,     0.000,     0.000,    -0.000,   1
  220,' 2',1,   1,   2,    28.791,     6.072,     0.000,     0.000,     0.000,    -0.000,   1
  222,'1 ',1,   1,   2,    17.584,    -0.441,     0.000,     0.000,     0.000,    -0.000,   1
  222,' 2',1,   1,   2,    15.692,     2.937,     0.000,     0.000,     0.000,    -0.000,   1
  333,'1 ',1,   1,   2,    28.450,    -0.545,     0.000,     0.000,     0.000,    -0.000,   1
  356,'1 ',1,   1,   2,    29.078,    -2.977,     0.000,     0.000,     0.000,    -0.000,   1
  363,'1 ',1,   1,   2,    90.447,    75.569,     0.000,     0.000,     0.000,    -0.000,   1
  565,'1 ',1,   1,   2,    32.658,     0.143,     0.000,     0.000,     0.000,    -0.000,   1
  565,' 2',1,   1,   2,    26.607,     0.095,     0.000,     0.000,     0.000,    -0.000,   1
  593,'1 ',1,   1,   2,    24.392,     5.844,     0.000,     0.000,     0.000,    -0.000,   1
  593,' 2',1,   1,   2,    22.174,     3.280,     0.000,     0.000,     0.000,    -0.000,   1
  595,'1 ',1,   1,   2,    25.836,    -2.560,     0.000,     0.000,     0.000,    -0.000,   1
  595,' 2',1,   1,   2,    32.182,     0.585,     0.000,     0.000,     0.000,    -0.000,   1
  611,'1 ',1,   1,   2,    34.959,     9.584,     0.000,     0.000,     0.000,    -0.000,   1
  611,' 2',1,   1,   2,    37.149,    10.854,     0.000,     0.000,     0.000,    -0.000,   1
  659,'1 ',1,   1,   2,    34.305,     9.118,     0.000,     0.000,     0.000,    -0.000,   1
  660,'1 ',1,   1,   2,    33.869,     7.835,     0.000,     0.000,     0.000,    -0.000,   1
  661,'1 ',1,   1,   2,    37.925,    13.695,     0.000,     0.000,     0.000,    -0.000,   1
  662,'1 ',1,   1,   2,    42.268,    15.311,     0.000,     0.000,     0.000,    -0.000,   1
  672,'1 ',1,   1,   2,    65.540,    21.974,     0.000,     0.000,     0.000,    -0.000,   1
  702,'1 ',1,   1,   2,     2.900,    -0.001,     0.000,     0.000,     0.000,    -0.000,   1
  702,' 2',1,   1,   2,     2.900,    -0.001,     0.000,     0.000,     0.000,    -0.000,   1
  702,' 3',1,   1,   2,     1.310,    -3.336,     0.000,     0.000,     0.000,    -0.000,   1
  702,' 4',1,   1,   2,     0.043,     0.041,     0.000,     0.000,     0.000,    -0.000,   1
  702,' 5',1,   1,   2,    18.838,    11.161,     0.000,     0.000,     0.000,    -0.000,   1
  702,' 6',1,   1,   2,    18.838,    11.161,     0.000,     0.000,     0.000,    -0.000,   1
  743,'1 ',1,   1,   2,     0.043,    -0.006,     0.000,     0.000,     0.000,    -0.000,   1
  743,' 2',1,   1,   2,     1.396,    -2.006,     0.000,     0.000,     0.000,    -0.000,   1
  743,' 3',1,   1,   2,    18.838,    11.161,     0.000,     0.000,     0.000,    -0.000,   1
  743,' 4',1,   1,   2,    18.838,    11.161,     0.000,     0.000,     0.000,    -0.000,   1
  743,' 5',1,   1,   2,    18.838,    11.161,     0.000,     0.000,     0.000,    -0.000,   1
  743,' 6',1,   1,   2,    18.838,    11.161,     0.000,     0.000,     0.000,    -0.000,   1
  756,'1 ',1,   1,   2,    11.398,     2.793,     0.000,     0.000,     0.000,    -0.000,   1
  756,' 2',1,   1,   2,    11.398,     2.793,     0.000,     0.000,     0.000,    -0.000,   1
  758,'1 ',1,   1,   2,    11.398,     2.781,     0.000,     0.000,     0.000,    -0.000,   1
  758,' 2',1,   1,   2,    11.398,     2.781,     0.000,     0.000,     0.000,    -0.000,   1
  763,'1 ',1,   1,   2,     5.685,     2.834,     0.000,     0.000,     0.000,    -0.000,   1
  763,' 2',1,   1,   2,     7.781,     3.436,     0.000,     0.000,     0.000,    -0.000,   1
  773,'1 ',1,   1,   2,    18.238,     8.721,     0.000,     0.000,     0.000,    -0.000,   1
  773,' 2',1,   1,   2,    18.518,     6.767,     0.000,     0.000,     0.000,    -0.000,   1
  774,'1 ',1,   1,   2,    18.183,     9.548,     0.000,     0.000,     0.000,    -0.000,   1
  774,' 2',1,   1,   2,    18.271,     9.568,     0.000,     0.000,     0.000,    -0.000,   1
  780,'1 ',1,   1,   2,     0.000,     0.000,     0.000,     0.000,     0.000,    -0.000,   1
  789,'1 ',1,   1,   2,    28.310,     0.039,     0.000,     0.000,     0.000,    -0.000,   1
  789,' 2',1,   1,   2,    28.463,    -3.469,     0.000,     0.000,     0.000,    -0.000,   1
  791,'1 ',1,   1,   2,    28.036,     1.025,     0.000,     0.000,     0.000,    -0.000,   1
  791,' 2',1,   1,   2,    26.718,     2.196,     0.000,     0.000,     0.000,    -0.000,   1
  805,'1 ',1,   1,   2,    34.604,    13.495,     0.000,     0.000,     0.000,    -0.000,   1
  805,' 2',1,   1,   2,     0.017,     0.016,     0.000,     0.000,     0.000,    -0.000,   1
  807,'1 ',1,   1,   2,    23.525,     8.458,     0.000,     0.000,     0.000,    -0.000,   1
  807,' 2',1,   1,   2,    20.158,    -1.150,     0.000,     0.000,     0.000,    -0.000,   1
  815,'1 ',1,   1,   2,    17.579,     8.345,     0.000,     0.000,     0.000,    -0.000,   1
  815,' 2',1,   1,   2,    16.238,     6.311,     0.000,     0.000,     0.000,    -0.000,   1
  817,'1 ',1,   1,   2,    14.504,     6.232,     0.000,     0.000,     0.000,    -0.000,   1
  817,' 2',1,   1,   2,    16.164,    10.143,     0.000,     0.000,     0.000,    -0.000,   1
  819,'1 ',1,   1,   2,    24.094,     6.450,     0.000,     0.000,     0.000,    -0.000,   1
  819,' 2',1,   1,   2,    24.201,     8.597,     0.000,     0.000,     0.000,    -0.000,   1
  824,'1 ',1,   1,   2,    23.637,     1.979,     0.000,     0.000,     0.000,    -0.000,   1
  824,' 2',1,   1,   2,    23.535,     3.931,     0.000,     0.000,     0.000,    -0.000,   1
  831,'1 ',1,   1,   2,    17.630,     6.315,     0.000,     0.000,     0.000,    -0.000,   1
  831,' 2',1,   1,   2,    18.567,     7.938,     0.000,     0.000,     0.000,    -0.000,   1
  835,'1 ',1,   1,   2,    17.973,     7.653,     0.000,     0.000,     0.000,    -0.000,   1
  835,' 2',1,   1,   2,    18.018,     9.064,     0.000,     0.000,     0.000,    -0.000,   1
  851,'1 ',1,   1,   2,    70.324,    15.005,     0.000,     0.000,     0.000,    -0.000,   1
  859,'1 ',1,   1,   2,    24.163,    11.095,     0.000,     0.000,     0.000,    -0.000,   1
  859,' 2',1,   1,   2,    23.277,    11.383,     0.000,     0.000,     0.000,    -0.000,   1
  861,'1 ',1,   1,   2,    24.117,    10.963,     0.000,     0.000,     0.000,    -0.000,   1
  861,' 2',1,   1,   2,    24.115,    10.967,     0.000,     0.000,     0.000,    -0.000,   1
  888,'1 ',1,   1,   2,    72.152,    30.014,     0.000,     0.000,     0.000,    -0.000,   1
  888,' 2',1,   1,   2,    51.438,    22.025,     0.000,     0.000,     0.000,    -0.000,   1
  896,'1 ',1,   1,   2,    43.785,    12.739,     0.000,     0.000,     0.000,    -0.000,   1
  915,'1 ',1,   1,   2,    43.803,     4.828,     0.000,     0.000,     0.000,    -0.000,   1
  915,' 2',1,   1,   2,    43.803,     4.828,     0.000,     0.000,     0.000,    -0.000,   1
  917,'1 ',1,   1,   2,    43.803,     4.828,     0.000,     0.000,     0.000,    -0.000,   1
  917,' 2',1,   1,   2,     0.000,     0.000,     0.000,     0.000,     0.000,    -0.000,   1
  917,' 3',1,   1,   2,     0.000,     0.000,     0.000,     0.000,     0.000,    -0.000,   1
  929,'1 ',1,   1,   2,    20.758,     2.015,     0.000,     0.000,     0.000,    -0.000,   1
  939,'1 ',1,   1,   2,    22.576,     6.514,     0.000,     0.000,     0.000,    -0.000,   1
  940,'1 ',1,   1,   2,    27.446,    17.410,     0.000,     0.000,     0.000,    -0.000,   1
  950,'1 ',1,   1,   2,    21.254,     3.705,     0.000,     0.000,     0.000,    -0.000,   1
  950,' 2',1,   1,   2,    27.304,     3.080,     0.000,     0.000,     0.000,    -0.000,   1
  952,'1 ',1,   1,   2,    24.210,     5.025,     0.000,     0.000,     0.000,    -0.000,   1
  952,' 2',1,   1,   2,    24.958,     5.713,     0.000,     0.000,     0.000,    -0.000,   1
  961,'1 ',1,   1,   2,    29.013,     3.548,     0.000,     0.000,     0.000,    -0.000,   1
  961,' 2',1,   1,   2,    24.895,     9.041,     0.000,     0.000,     0.000,    -0.000,   1
  963,'1 ',1,   1,   2,     8.823,     6.392,     0.000,     0.000,     0.000,    -0.000,   1
  963,' 2',1,   1,   2,    32.012,     5.156,     0.000,     0.000,     0.000,    -0.000,   1
  968,'1 ',1,   1,   2,    35.842,    14.703,     0.000,     0.000,     0.000,    -0.000,   1
  969,'1 ',1,   1,   2,    31.365,    13.574,     0.000,     0.000,     0.000,    -0.000,   1
  979,'1 ',1,   1,   2,    26.017,     1.548,     0.000,     0.000,     0.000,    -0.000,   1
  979,' 2',1,   1,   2,    45.666,     8.452,     0.000,     0.000,     0.000,    -0.000,   1
  981,'1 ',1,   1,   2,    20.943,     7.384,     0.000,     0.000,     0.000,    -0.000,   1
  981,' 2',1,   1,   2,    38.264,     5.830,     0.000,     0.000,     0.000,    -0.000,   1
 1019,'1 ',1,   1,   2,    24.289,    10.748,     0.000,     0.000,     0.000,    -0.000,   1
 1019,' 2',1,   1,   2,     3.912,    11.549,     0.000,     0.000,     0.000,    -0.000,   1
 1024,'1 ',1,   1,   2,    20.318,     9.815,     0.000,     0.000,     0.000,    -0.000,   1
 1024,' 2',1,   1,   2,    21.734,    12.091,     0.000,     0.000,     0.000,    -0.000,   1
 1040,'1 ',1,   1,   2,    33.592,    -1.560,     0.000,     0.000,     0.000,    -0.000,   1
 1040,' 2',1,   1,   2,    32.404,    -2.688,     0.000,     0.000,     0.000,    -0.000,   1
 1042,'1 ',1,   1,   2,    28.668,    -6.656,     0.000,     0.000,     0.000,    -0.000,   1
 1042,' 2',1,   1,   2,    32.777,    -9.094,     0.000,     0.000,     0.000,    -0.000,   1
 1051,'1 ',1,   1,   2,    12.490,     3.398,     0.000,     0.000,     0.000,    -0.000,   1
 1051,' 2',1,   1,   2,    20.513,    -0.977,     0.000,     0.000,     0.000,    -0.000,   1
 1051,' 3',1,   1,   2,    11.235,    17.510,     0.000,     0.000,     0.000,    -0.000,   1
 1051,' 4',1,   1,   2,    21.268,    12.301,     0.000,     0.000,     0.000,    -0.000,   1
 1055,'1 ',1,   1,   2,    44.163,    14.393,     0.000,     0.000,     0.000,    -0.000,   1
 1055,' 2',1,   1,   2,    34.227,    13.150,     0.000,     0.000,     0.000,    -0.000,   1
 1058,'1 ',1,   1,   2,    36.737,    -6.994,     0.000,     0.000,     0.000,    -0.000,   1
 1061,'1 ',1,   1,   2,    20.237,     1.722,     0.000,     0.000,     0.000,    -0.000,   1
 1065,'1 ',1,   1,   2,    11.797,    -2.804,     0.000,     0.000,     0.000,    -0.000,   1
 1073,'1 ',1,   1,   2,    26.295,    -4.049,     0.000,     0.000,     0.000,    -0.000,   1
 1073,' 2',1,   1,   2,    22.392,    -5.532,     0.000,     0.000,     0.000,    -0.000,   1
 1074,'1 ',1,   1,   2,    25.145,     0.424,     0.000,     0.000,     0.000,    -0.000,   1
 1074,' 2',1,   1,   2,    31.998,    -2.699,     0.000,     0.000,     0.000,    -0.000,   1
 1082,'1 ',1,   1,   2,    15.000,     3.294,     0.000,     0.000,     0.000,    -0.000,   1
 1082,' 2',1,   1,   2,     8.188,     3.992,     0.000,     0.000,     0.000,    -0.000,   1
 1101,'1 ',1,   1,   2,    30.762,     8.070,     0.000,     0.000,     0.000,    -0.000,   1
 1102,'1 ',1,   1,   2,    30.754,     8.047,     0.000,     0.000,     0.000,    -0.000,   1
 1107,'1 ',1,   1,   2,    34.640,    10.389,     0.000,     0.000,     0.000,    -0.000,   1
 1109,'1 ',1,   1,   2,    34.680,    12.223,     0.000,     0.000,     0.000,    -0.000,   1
 1120,'1 ',1,   1,   2,    49.650,     1.279,     0.000,     0.000,     0.000,    -0.000,   1
 1126,'1 ',1,   1,   2,    29.107,     4.613,     0.000,     0.000,     0.000,    -0.000,   1
 1127,'1 ',1,   1,   2,    24.030,     3.716,     0.000,     0.000,     0.000,    -0.000,   1
 1130,'1 ',1,   1,   2,    21.439,     9.311,     0.000,     0.000,     0.000,    -0.000,   1
 1139,'1 ',1,   1,   2,    21.246,     0.722,     0.000,     0.000,     0.000,    -0.000,   1
 1147,'1 ',1,   1,   2,    14.708,     3.370,     0.000,     0.000,     0.000,    -0.000,   1
 1153,'1 ',1,   1,   2,    10.879,     0.215,     0.000,     0.000,     0.000,    -0.000,   1
 1160,'1 ',1,   1,   2,    40.859,    -2.891,     0.000,     0.000,     0.000,    -0.000,   1
 1161,'1 ',1,   1,   2,    39.413,    10.914,     0.000,     0.000,     0.000,    -0.000,   1
 1163,'1 ',1,   1,   2,     0.000,     0.000,     0.000,     0.000,     0.000,    -0.000,   1
 1165,'1 ',1,   1,   2,     0.000,     0.000,     0.000,     0.000,     0.000,    -0.000,   1
 1174,'1 ',1,   1,   2,    32.300,    15.496,     0.000,     0.000,     0.000,    -0.000,   1
 1177,'1 ',1,   1,   2,     0.000,     0.000,     0.000,     0.000,     0.000,    -0.000,   1
 1179,'1 ',1,   1,   2,    32.468,    18.022,     0.000,     0.000,     0.000,    -0.000,   1
 1184,'1 ',1,   1,   2,    14.355,     1.219,     0.000,     0.000,     0.000,    -0.000,   1
 1184,' 2',1,   1,   2,    14.355,     1.219,     0.000,     0.000,     0.000,    -0.000,   1
 1190,'1 ',1,   1,   2,    28.464,    -0.262,     0.000,     0.000,     0.000,    -0.000,   1
 1196,'1 ',1,   1,   2,    25.630,     8.413,     0.000,     0.000,     0.000,    -0.000,   1
 1197,'1 ',1,   1,   2,    14.236,    -2.489,     0.000,     0.000,     0.000,    -0.000,   1
 1235,'1 ',1,   1,   3,    21.928,     4.784,     0.000,     0.000,     0.000,    -0.000,   1
 1236,'1 ',1,   1,   3,    14.455,     2.130,     0.000,     0.000,     0.000,    -0.000,   1
 1240,'1 ',1,   1,   3,    14.814,     1.914,     0.000,     0.000,     0.000,    -0.000,   1
 1242,'1 ',1,   1,   3,    20.909,     3.297,     0.000,     0.000,     0.000,    -0.000,   1
 1242,' 2',1,   1,   3,    10.547,     1.352,     0.000,     0.000,     0.000,    -0.000,   1
 1267,'1 ',1,   1,   3,    25.232,     4.619,     0.000,     0.000,     0.000,    -0.000,   1
 1268,'1 ',1,   1,   3,    23.160,     4.515,     0.000,     0.000,     0.000,    -0.000,   1
 1269,'1 ',1,   1,   3,    23.160,     4.515,     0.000,     0.000,     0.000,    -0.000,   1
 1276,'1 ',1,   1,   4,     0.000,     0.000,     0.000,     0.000,     0.000,    -0.000,   1
 1286,'1 ',1,   1,   4,     2.351,     0.953,     0.000,     0.000,     0.000,    -0.000,   1
 1309,'1 ',1,   1,   4,    12.287,    -1.610,     0.000,     0.000,     0.000,    -0.000,   1
 1313,'1 ',1,   1,   4,    14.152,     0.973,     0.000,     0.000,     0.000,    -0.000,   1
 1363,'1 ',1,   1,   4,    22.001,    12.618,     0.000,     0.000,     0.000,    -0.000,   1
 1407,'1 ',1,   1,   4,    22.624,     6.694,     0.000,     0.000,     0.000,    -0.000,   1
 1408,'1 ',1,   1,   4,     7.794,     2.478,     0.000,     0.000,     0.000,    -0.000,   1
 1416,'1 ',1,   1,   4,     8.232,     2.328,     0.000,     0.000,     0.000,    -0.000,   1
 1429,'1 ',1,   1,   4,     9.066,     2.527,     0.000,     0.000,     0.000,    -0.000,   1
 1436,'1 ',1,   1,   4,    16.567,     7.621,     0.000,     0.000,     0.000,    -0.000,   1
 1436,' 2',1,   1,   4,    16.567,     7.621,     0.000,     0.000,     0.000,    -0.000,   1
 1447,'1 ',1,   1,   4,     2.580,     0.800,     0.000,     0.000,     0.000,    -0.000,   1
 1447,' 2',1,   1,   4,     2.580,     1.506,     0.000,     0.000,     0.000,    -0.000,   1
 1447,' 3',1,   1,   4,     2.120,    -1.401,     0.000,     0.000,     0.000,    -0.000,   1
 1459,'1 ',1,   1,   4,     4.307,     2.589,     0.000,     0.000,     0.000,    -0.000,   1
 1459,' 2',1,   1,   4,     3.612,     1.142,     0.000,     0.000,     0.000,    -0.000,   1
 1471,'1 ',1,   1,   4,    83.987,    47.841,     0.000,     0.000,     0.000,    -0.000,   1
 1485,'1 ',1,   1,   4,     7.533,     2.506,     0.000,     0.000,     0.000,    -0.000,   1
 1487,'1 ',1,   1,   4,     0.686,    12.604,     0.000,     0.000,     0.000,    -0.000,   1
 1492,'1 ',1,   1,   4,    50.859,    38.001,     0.000,     0.000,     0.000,    -0.000,   1
 1501,'1 ',1,   1,   4,    15.265,     2.784,     0.000,     0.000,     0.000,    -0.000,   1
 1501,' 2',1,   1,   4,    15.294,     5.466,     0.000,     0.000,     0.000,    -0.000,   1
 1511,'1 ',1,   1,   4,    25.861,     0.000,     0.000,     0.000,     0.000,    -0.000,   1
 1511,' 2',1,   1,   4,    16.160,    -5.050,     0.000,     0.000,     0.000,    -0.000,   1
 1511,' 3',1,   1,   4,    18.110,    -7.240,     0.000,     0.000,     0.000,    -0.000,   1
 1533,'1 ',1,   1,   4,    13.851,     1.763,     0.000,     0.000,     0.000,    -0.000,   1
 1535,'1 ',1,   1,   4,     2.613,     1.808,     0.000,     0.000,     0.000,    -0.000,   1
 1543,'1 ',1,   1,   4,    15.988,     2.374,     0.000,     0.000,     0.000,    -0.000,   1
 1545,'1 ',1,   1,   4,    12.276,     0.773,     0.000,     0.000,     0.000,    -0.000,   1
 1548,'1 ',1,   1,   4,     7.489,     3.324,     0.000,     0.000,     0.000,    -0.000,   1
 1548,' 2',1,   1,   4,     7.489,    -0.079,     0.000,     0.000,     0.000,    -0.000,   1
 1559,'1 ',1,   1,   4,    20.340,     0.864,     0.000,     0.000,     0.000,    -0.000,   1
 1563,'1 ',1,   1,   4,    12.108,     4.830,     0.000,     0.000,     0.000,    -0.000,   1
 1567,'1 ',1,   1,   4,    16.793,     0.197,     0.000,     0.000,     0.000,    -0.000,   1
 1570,'1 ',1,   1,   4,     2.569,     0.260,     0.000,     0.000,     0.000,    -0.000,   1
 1581,'1 ',1,   1,   4,     1.798,     0.410,     0.000,     0.000,     0.000,    -0.000,   1
 1600,'1 ',1,   1,   4,     1.922,    -3.514,     0.000,     0.000,     0.000,    -0.000,   1
 1602,'1 ',1,   1,   4,     3.288,    -0.050,     0.000,     0.000,     0.000,    -0.000,   1
 1616,'1 ',1,   1,   4,     1.734,     0.587,     0.000,     0.000,     0.000,    -0.000,   1
...
0 / END OF LOAD DATA, BEGIN GENERATOR DATA
    3,'1 ',     0.000,   -65.628,   441.000,  -155.000,1.03842,    1,   100.000,   0.00000,   1.00000,   0.00000,   0.00000,1.00000,1,  100.0,     0.000,     0.000,   1,1.0000,   0,1.0000,   0,1.0000,   0,1.0000
   62,'1 ',    14.539,     0.000,     0.000,     0.000,1.00000,    0,   100.000,   0.00000,   1.00000,   0.00000,   0.00000,1.00000,1,  100.0,   130.000,     0.000,   1,1.0000,   0,1.0000,   0,1.0000,   0,1.0000
   75,'1 ',    13.037,    -1.829,    -1.829,    -1.829,1.05086,    0,   100.000,   0.00000,   1.00000,   0.00000,   0.00000,1.00000,1,  100.0,    20.846,     0.000,   1,1.0000,   0,1.0000,   0,1.0000,   0,1.0000
   81,'1 ',     0.000,     0.000,     1.068,    -0.840,1.02000,    0,   100.000,   0.00000,   1.00000,   0.00000,   0.00000,1.00000,1,  100.0,     8.710,    -0.084,   1,1.0000,   0,1.0000,   0,1.0000,   0,1.0000
   84,'1 ',    20.928,    -1.264,    10.400,    -6.500,1.03602,    0,   100.000,   0.00000,   1.00000,   0.00000,   0.00000,1.00000,1,  100.0,    25.890,     0.000,   1,1.0000,   0,1.0000,   0,1.0000,   0,1.0000
  106,'1 ',     0.000,     0.000,     9.064,    -6.432,1.04350,    0,   100.000,   0.00000,   1.00000,   0.00000,   0.00000,1.00000,1,  100.0,    16.000,    -9.858,   1,1.0000,   0,1.0000,   0,1.0000,   0,1.0000
  112,'1 ',    22.356,     0.955,     0.955,     0.955,1.04350,    0,   100.000,   0.00000,   1.00000,   0.00000,   0.00000,1.00000,1,  100.0,    23.171,     0.000,   1,1.0000,   0,1.0000,   0,1.0000,   0,1.0000
  116,'1 ',    96.050,     1.228,   145.000,   -90.000,1.06144,   94,   100.000,   0.00000,   1.00000,   0.00000,   0.00000,1.00000,1,   32.7,   183.400,    -2.881,   1,1.0000,   0,1.0000,   0,1.0000,   0,1.0000
  118,'1 ',   137.350,     5.403,   157.326,   -90.997,1.06144,   94,   100.000,   0.00000,   1.00000,   0.00000,   0.00000,1.00000,1,   34.6,   204.300,    -0.960,   1,1.0000,   0,1.0000,   0,1.0000,   0,1.0000
  119,'1 ',    95.090,     1.228,   145.000,   -90.000,1.06144,   94,   100.000,   0.00000,   1.00000,   0.00000,   0.00000,1.00000,1,   32.7,   183.400,    -3.522,   1,1.0000,   0,1.0000,   0,1.0000,   0,1.0000
  123,'1 ',    19.666,     0.000,     0.000,     0.000,1.05000,    0,   100.000,   0.00000,   1.00000,   0.00000,   0.00000,1.00000,1,  100.0,    24.847,     0.000,   1,1.0000,   0,1.0000,   0,1.0000,   0,1.0000
  144,'1 ',    14.730,    -3.482,    -3.482,    -3.482,1.06169,  141,   100.000,   0.00000,   1.00000,   0.00000,   0.00000,1.00000,1,  100.0,    23.097,     0.000,   1,1.0000,   0,1.0000,   0,1.0000,   0,1.0000
  155,'1 ',     3.315,     0.000,     0.000,     0.000,1.02000,    0,   100.000,   0.00000,   1.00000,   0.00000,   0.00000,1.00000,1,  100.0,     9.090,     0.000,   1,1.0000,   0,1.0000,   0,1.0000,   0,1.0000
  156,'1 ',     0.000,     0.000,     1.366,    -0.188,1.02000,    0,   100.000,   0.00000,   1.00000,   0.00000,   0.00000,1.00000,1,  100.0,     8.401,    -0.012,   1,1.0000,   0,1.0000,   0,1.0000,   0,1.0000
  163,'1 ',    19.504,    -1.565,    -1.565,    -1.565,1.14121,  166,   100.000,   0.00000,   1.00000,   0.00000,   0.00000,1.00000,1,  100.0,    25.890,     0.000,   1,1.0000,   0,1.0000,   0,1.0000,   0,1.0000
  164,'1 ',     0.000,     0.000,     0.022,    -0.772,1.02000,    0,   100.000,   0.00000,   1.00000,   0.00000,   0.00000,1.00000,1,  100.0,     3.050,    -0.021,   1,1.0000,   0,1.0000,   0,1.0000,   0,1.0000
  361,'1 ',     0.000,     0.000,    13.000,    -8.000,1.00000,    0,   100.000,   0.00000,   1.00000,   0.00000,   0.00000,1.00000,1,  100.0,    13.460,    -0.046,   1,1.0000,   0,1.0000,   0,1.0000,   0,1.0000
  367,'1 ',   571.847,    56.013,   335.000,  -150.000,1.03772,  304,   100.000,   0.00000,   1.00000,   0.00000,   0.00000,1.00000,1,   35.4,   592.000,    27.924,   1,1.0000,   0,1.0000,   0,1.0000,   0,1.0000
  371,'1 ',   242.426,     3.399,   160.532,  -112.634,1.03772,  291,   100.000,   0.00000,   1.00000,   0.00000,   0.00000,1.00000,1,   20.0,   300.397,     0.122,   1,1.0000,   0,1.0000,   0,1.0000,   0,1.0000
  382,'1 ',   179.365,   -38.677,   189.788,  -146.311,1.03739,  335,   100.000,   0.00000,   1.00000,   0.00000,   0.00000,1.00000,1,   52.2,   268.837,     6.754,   1,1.0000,   0,1.0000,   0,1.0000,   0,1.0000
  384,'1 ',   214.695,   -33.155,   176.379,  -131.869,1.03739,  333,   100.000,   0.00000,   1.00000,   0.00000,   0.00000,1.00000,1,   47.8,   262.481,     6.510,   1,1.0000,   0,1.0000,   0,1.0000,   0,1.0000
  386,'1 ',   221.024,    -0.467,   173.976,  -129.282,1.03772,  291,   100.000,   0.00000,   1.00000,   0.00000,   0.00000,1.00000,1,   22.2,   268.211,     7.235,   1,1.0000,   0,1.0000,   0,1.0000,   0,1.0000
  388,'1 ',   215.815,    -0.852,   175.953,  -131.411,1.03772,  291,   100.000,   0.00000,   1.00000,   0.00000,   0.00000,1.00000,1,   22.5,   261.215,     0.000,   1,1.0000,   0,1.0000,   0,1.0000,   0,1.0000
  391,'1 ',   228.620,    14.676,   166.081,  -119.239,1.01403,  324,   100.000,   0.00000,   1.00000,   0.00000,   0.00000,1.00000,1,  100.0,   298.541,     0.031,   1,1.0000,   0,1.0000,   0,1.0000,   0,1.0000
  402,'1 ',   681.226,    31.403,   390.000,  -100.000,1.02585,  399,   100.000,   0.00000,   1.00000,   0.00000,   0.00000,1.00000,1,  100.0,   695.716,    33.895,   1,1.0000,   0,1.0000,   0,1.0000,   0,1.0000
  505,'1 ',     0.000,     0.000,    50.000,   -10.000,1.04242,  502,   100.000,   0.00000,   1.00000,   0.00000,   0.00000,1.00000,1,  100.0,    62.200,    -0.005,   1,1.0000,   0,1.0000,   0,1.0000,   0,1.0000
  506,'1 ',     0.000,     0.000,    50.000,   -10.000,1.04242,  502,   100.000,   0.00000,   1.00000,   0.00000,   0.00000,1.00000,1,  100.0,    60.760,     0.000,   1,1.0000,   0,1.0000,   0,1.0000,   0,1.0000
  521,'1 ',    70.905,     1.865,    50.000,   -40.000,1.02505,  508,   100.000,   0.00000,   1.00000,   0.00000,   0.00000,1.00000,1,   36.0,   104.100,     0.000,   1,1.0000,   0,1.0000,   0,1.0000,   0,1.0000
  522,'1 ',    95.543,    -2.786,    40.000,   -40.000,1.02505,  508,   100.000,   0.00000,   1.00000,   0.00000,   0.00000,1.00000,1,   32.0,   123.938,    -1.023,   1,1.0000,   0,1.0000,   0,1.0000,   0,1.0000
  523,'1 ',    98.625,    -2.786,    40.000,   -40.000,1.02505,  508,   100.000,   0.00000,   1.00000,   0.00000,   0.00000,1.00000,1,   32.0,   116.730,     0.000,   1,1.0000,   0,1.0000,   0,1.0000,   0,1.0000
  544,'1 ',   198.935,    17.797,   140.000,   -70.000,1.02561,  539,   100.000,   0.00000,   1.00000,   0.00000,   0.00000,1.00000,1,   50.0,   307.500,    -7.560,   1,1.0000,   0,1.0000,   0,1.0000,   0,1.0000
  546,'1 ',   193.259,    17.797,   140.000,   -70.000,1.02561,  540,   100.000,   0.00000,   1.00000,   0.00000,   0.00000,1.00000,1,   50.0,   307.500,    -7.980,   1,1.0000,   0,1.0000,   0,1.0000,   0,1.0000
  568,'1 ',     0.000,     0.000,    13.000,    -8.000,1.00000,    0,   100.000,   0.00000,   1.00000,   0.00000,   0.00000,1.00000,1,  100.0,    14.200,     0.000,   1,1.0000,   0,1.0000,   0,1.0000,   0,1.0000
  569,'1 ',     0.000,     0.000,    13.000,    -8.000,1.00000,    0,   100.000,   0.00000,   1.00000,   0.00000,   0.00000,1.00000,1,  100.0,    13.547,     0.006,   1,1.0000,   0,1.0000,   0,1.0000,   0,1.0000
  570,'1 ',     0.000,     0.000,    13.000,    -8.000,1.00000,    0,   100.000,   0.00000,   1.00000,   0.00000,   0.00000,1.00000,1,  100.0,    14.400,     0.000,   1,1.0000,   0,1.0000,   0,1.0000,   0,1.0000
  658,'1 ',     0.000,     0.000,     3.867,     0.000,1.00000,    0,   100.000,   0.00000,   1.00000,   0.00000,   0.00000,1.00000,1,  100.0,    18.157,     0.000,   1,1.0000,   0,1.0000,   0,1.0000,   0,1.0000
  748,'1 ',     0.000,     0.000,    18.000,    -6.000,1.00000,    0,   100.000,   0.00000,   1.00000,   0.00000,   0.00000,1.00000,1,  100.0,    22.250,     0.000,   1,1.0000,   0,1.0000,   0,1.0000,   0,1.0000
  762,'1 ',     0.000,     0.000,    19.380,   -14.000,1.00000,    0,   100.000,   0.00000,   1.00000,   0.00000,   0.00000,1.00000,1,  100.0,    68.100,    -0.100,   1,1.0000,   0,1.0000,   0,1.0000,   0,1.0000
  888,'1 ',    34.587,    13.549,    13.549,    13.549,1.00000,    0,   100.000,   0.00000,   1.00000,   0.00000,   0.00000,1.00000,1,  100.0,    47.248,     0.000,   1,1.0000,   0,1.0000,   0,1.0000,   0,1.0000
  888,'2 ',     6.516,     5.022,     5.022,     5.022,1.00000,    0,   100.000,   0.00000,   1.00000,   0.00000,   0.00000,1.00000,1,  100.0,    33.000,     0.000,   1,1.0000,   0,1.0000,   0,1.0000,   0,1.0000
 1145,'1 ',     0.000,     0.000,    50.000,   -10.000,1.00000,    0,   100.000,   0.00000,   1.00000,   0.00000,   0.00000,1.00000,1,  100.0,    60.400,    -0.044,   1,1.0000,   0,1.0000,   0,1.0000,   0,1.0000
 1224,'1 ',    83.277,    -0.291,    -0.291,    -0.291,1.01627, 1202,   100.000,   0.00000,   1.00000,   0.00000,   0.00000,1.00000,1,  100.0,   290.000,    -0.213,   1,1.0000,   0,1.0000,   0,1.0000,   0,1.0000
 1228,'1 ',    56.139,     1.541,     1.541,     1.541,1.01627, 1202,   100.000,   0.00000,   1.00000,   0.00000,   0.00000,1.00000,1,  100.0,   267.248,     0.000,   1,1.0000,   0,1.0000,   0,1.0000,   0,1.0000
 1230,'1 ',   169.700,    -3.222,    -3.222,    -3.222,1.01627, 1202,   100.000,   0.00000,   1.00000,   0.00000,   0.00000,1.00000,1,  100.0,   267.126,     0.154,   1,1.0000,   0,1.0000,   0,1.0000,   0,1.0000
 1252,'1 ',    75.818,     9.000,     9.000,     9.000,1.01709,    0,   100.000,   0.00000,   1.00000,   0.00000,   0.00000,1.00000,1,  100.0,    97.500,    -0.635,   1,1.0000,   0,1.0000,   0,1.0000,   0,1.0000
 1254,'1 ',     0.000,     0.000,     1.150,     0.000,1.01709, 1252,   100.000,   0.00000,   1.00000,   0.00000,   0.00000,1.00000,1,  100.0,     2.355,     0.000,   1,1.0000,   0,1.0000,   0,1.0000,   0,1.0000
 1359,'1 ',    69.299,    -4.453,   483.137,  -260.447,1.04965, 1356,   100.000,   0.00000,   1.00000,   0.00000,   0.00000,1.00000,1,  100.0,   620.000,     0.000,   1,1.0000,   0,1.0000,   0,1.0000,   0,1.0000
 1366,'1 ',    45.740,     1.718,    26.390,   -19.900,1.04296, 1363,   100.000,   0.00000,   1.00000,   0.00000,   0.00000,1.00000,1,   22.7,    54.230,     0.000,   1,1.0000,   0,1.0000,   0,1.0000,   0,1.0000
 1367,'1 ',    28.910,     4.000,    40.175,   -27.697,1.04296, 1363,   100.000,   0.00000,   1.00000,   0.00000,   0.00000,1.00000,1,   33.2,    54.620,     0.000,   1,1.0000,   0,1.0000,   0,1.0000,   0,1.0000
 1368,'1 ',   117.720,     0.345,    48.408,   -41.768,1.04296, 1363,   100.000,   0.00000,   1.00000,   0.00000,   0.00000,1.00000,1,   44.1,   121.464,     0.000,   1,1.0000,   0,1.0000,   0,1.0000,   0,1.0000
 1405,'1 ',     5.791,     0.000,     0.000,     0.000,1.03500,    0,   100.000,   0.00000,   1.00000,   0.00000,   0.00000,1.00000,1,  100.0,    13.535,     0.000,   1,1.0000,   0,1.0000,   0,1.0000,   0,1.0000
 1406,'1 ',     6.146,     0.000,     0.000,     0.000,1.03500,    0,   100.000,   0.00000,   1.00000,   0.00000,   0.00000,1.00000,1,  100.0,    17.500,     0.000,   1,1.0000,   0,1.0000,   0,1.0000,   0,1.0000
 1447,'1 ',     6.023,     0.000,     0.000,     0.000,1.02000,    0,   100.000,   0.00000,   1.00000,   0.00000,   0.00000,1.00000,1,  100.0,     6.810,     0.000,   1,1.0000,   0,1.0000,   0,1.0000,   0,1.0000
 1462,'1 ',   125.340,    46.181,   140.915,   -25.000,1.03408, 1459,   100.000,   0.00000,   1.00000,   0.00000,   0.00000,1.00000,1,   62.4,   197.715,     0.000,   1,1.0000,   0,1.0000,   0,1.0000,   0,1.0000
 1464,'1 ',    64.703,    17.938,    75.084,   -25.000,1.03408, 1459,   100.000,   0.00000,   1.00000,   0.00000,   0.00000,1.00000,1,   37.6,    99.570,     0.787,   1,1.0000,   0,1.0000,   0,1.0000,   0,1.0000
 1470,'1 ',    69.552,    11.908,    83.500,   -60.000,1.02945, 1471,   100.000,   0.00000,   1.00000,   0.00000,   0.00000,1.00000,1,  100.0,    89.964,    -1.728,   1,1.0000,   0,1.0000,   0,1.0000,   0,1.0000
 1474,'1 ',    32.811,     0.999,     0.999,     0.999,1.00000,    0,   100.000,   0.00000,   1.00000,   0.00000,   0.00000,1.00000,1,  100.0,    45.500,     0.000,   1,1.0000,   0,1.0000,   0,1.0000,   0,1.0000
 1487,'1 ',    32.700,    17.010,    17.010,    17.010,1.00000,    0,   100.000,   0.00000,   1.00000,   0.00000,   0.00000,1.00000,1,  100.0,    32.700,     0.000,   1,1.0000,   0,1.0000,   0,1.0000,   0,1.0000
 1490,'1 ',   158.004,   -12.517,    70.000,   -44.000,1.04730, 1492,   100.000,   0.00000,   1.00000,   0.00000,   0.00000,1.00000,1,  100.0,   230.000,     2.376,   1,1.0000,   0,1.0000,   0,1.0000,   0,1.0000
 1511,'1 ',     7.560,     0.000,     0.000,     0.000,1.06000,    0,   100.000,   0.00000,   1.00000,   0.00000,   0.00000,1.00000,1,  100.0,    17.150,     0.000,   1,1.0000,   0,1.0000,   0,1.0000,   0,1.0000
 1511,'2 ',     0.726,     0.000,     0.000,     0.000,1.06000,    0,   100.000,   0.00000,   1.00000,   0.00000,   0.00000,1.00000,1,  100.0,     1.532,     0.000,   1,1.0000,   0,1.0000,   0,1.0000,   0,1.0000
 1511,'3 ',     2.424,     0.000,     0.000,     0.000,1.06000,    0,   100.000,   0.00000,   1.00000,   0.00000,   0.00000,1.00000,1,  100.0,     7.500,     0.000,   1,1.0000,   0,1.0000,   0,1.0000,   0,1.0000
 1511,'4 ',     5.751,     0.000,     0.000,     0.000,1.06000,    0,   100.000,   0.00000,   1.00000,   0.00000,   0.00000,1.00000,1,  100.0,     9.500,     0.000,   1,1.0000,   0,1.0000,   0,1.0000,   0,1.0000
 1567,'1 ',    13.163,    -0.583,    -0.583,    -0.583,1.02000,    0,   100.000,   0.00000,   1.00000,   0.00000,   0.00000,1.00000,1,  100.0,    16.993,     0.000,   1,1.0000,   0,1.0000,   0,1.0000,   0,1.0000
 1581,'1 ',    18.345,     1.230,     1.230,     1.230,1.03133,    0,   100.000,   0.00000,   1.00000,   0.00000,   0.00000,1.00000,1,  100.0,    28.140,    -0.015,   1,1.0000,   0,1.0000,   0,1.0000,   0,1.0000
 1581,'2 ',    21.780,     2.107,     2.107,     2.107,1.03133,    0,   100.000,   0.00000,   1.00000,   0.00000,   0.00000,1.00000,1,  100.0,    30.705,    -0.015,   1,1.0000,   0,1.0000,   0,1.0000,   0,1.0000
 1581,'3 ',    19.020,     0.765,     0.765,     0.765,1.03133,    0,   100.000,   0.00000,   1.00000,   0.00000,   0.00000,1.00000,1,  100.0,    26.235,    -0.015,   1,1.0000,   0,1.0000,   0,1.0000,   0,1.0000
 1601,'1 ',    39.900,    -0.144,    -0.144,    -0.144,1.04922, 1600,   100.000,   0.00000,   1.00000,   0.00000,   0.00000,1.00000,1,  100.0,    47.975,     0.000,   1,1.0000,   0,1.0000,   0,1.0000,   0,1.0000
 1612,'1 ',     0.000,     0.000,     2.000,    -2.000,1.06000,    0,   100.000,   0.00000,   1.00000,   0.00000,   0.00000,1.00000,1,  100.0,     1.623,     0.000,   1,1.0000,   0,1.0000,   0,1.0000,   0,1.0000
 1615,'1 ',     0.000,     0.000,    14.528,   -14.528,1.06000,    0,   100.000,   0.00000,   1.00000,   0.00000,   0.00000,1.00000,1,    0.7,    36.498,     0.000,   1,1.0000,   0,1.0000,   0,1.0000,   0,1.0000
 1616,'1 ',     2.327,     3.502,     7.265,    -7.265,1.03864,    0,   100.000,   0.00000,   1.00000,   0.00000,   0.00000,1.00000,1,  100.0,    17.027,     0.000,   1,1.0000,   0,1.0000,   0,1.0000,   0,1.0000
 1617,'1 ',     0.000,     0.000,    14.528,   -14.528,1.06000,    0,   100.000,   0.00000,   1.00000,   0.00000,   0.00000,1.00000,1,    0.7,    36.585,     0.000,   1,1.0000,   0,1.0000,   0,1.0000,   0,1.0000
 1621,'1 ',     0.000,    18.348,    18.348,    18.348,1.00000,    0,   100.000,   0.00000,   1.00000,   0.00000,   0.00000,1.00000,1,  100.0,    87.000,     0.000,   1,1.0000,   0,1.0000,   0,1.0000,   0,1.0000
 1632,'1 ',     8.344,    -4.723,    -4.723,    -4.723,1.01580,    0,   100.000,   0.00000,   1.00000,   0.00000,   0.00000,1.00000,1,  100.0,    13.200,     0.000,   1,1.0000,   0,1.0000,   0,1.0000,   0,1.0000
 1649,'1 ',     9.371,    -2.584,    -2.584,    -2.584,1.02107, 1651,   100.000,   0.00000,   1.00000,   0.00000,   0.00000,1.00000,1,  100.0,    14.900,     0.000,   1,1.0000,   0,1.0000,   0,1.0000,   0,1.0000
 1674,'1 ',    34.363,     2.414,     2.414,     2.414,1.01762, 1673,   100.000,   0.00000,   1.00000,   0.00000,   0.00000,1.00000,1,  100.0,    37.935,     0.000,   1,1.0000,   0,1.0000,   0,1.0000,   0,1.0000
 1686,'1 ',    31.757,    -5.781,    13.200,    -8.250,1.00212, 1685,   100.000,   0.00000,   1.00000,   0.00000,   0.00000,1.00000,1,  100.0,    33.010,     0.000,   1,1.0000,   0,1.0000,   0,1.0000,   0,1.0000
 1714,'1 ',    44.558,     6.084,    36.273,   -19.779,1.02339, 1711,   100.000,   0.00000,   1.00000,   0.00000,   0.00000,1.00000,1,   32.8,    53.600,     3.690,   1,1.0000,   0,1.0000,   0,1.0000,   0,1.0000
 1715,'1 ',    43.838,     6.335,    36.894,   -19.846,1.02339, 1711,   100.000,   0.00000,   1.00000,   0.00000,   0.00000,1.00000,1,   33.2,    53.600,     5.340,   1,1.0000,   0,1.0000,   0,1.0000,   0,1.0000
 1716,'1 ',    42.667,     6.742,    37.902,   -19.954,1.02339, 1711,   100.000,   0.00000,   1.00000,   0.00000,   0.00000,1.00000,1,   33.9,    54.150,     4.170,   1,1.0000,   0,1.0000,   0,1.0000,   0,1.0000
 1761,'1 ',    21.420,     0.000,     0.000,     0.000,1.02000,    0,   100.000,   0.00000,   1.00000,   0.00000,   0.00000,1.00000,1,  100.0,    28.000,     0.000,   1,1.0000,   0,1.0000,   0,1.0000,   0,1.0000
 1803,'1 ',    12.920,     0.000,     0.000,     0.000,1.06000,    0,   100.000,   0.00000,   1.00000,   0.00000,   0.00000,1.00000,1,  100.0,    19.170,     0.000,   1,1.0000,   0,1.0000,   0,1.0000,   0,1.0000
 1804,'1 ',    14.555,     0.000,     0.000,     0.000,1.06000,    0,   100.000,   0.00000,   1.00000,   0.00000,   0.00000,1.00000,1,  100.0,    20.200,     0.000,   1,1.0000,   0,1.0000,   0,1.0000,   0,1.0000
 1805,'1 ',    10.080,     0.000,     0.000,     0.000,1.06000,    0,   100.000,   0.00000,   1.00000,   0.00000,   0.00000,1.00000,1,  100.0,    13.550,    -0.192,   1,1.0000,   0,1.0000,   0,1.0000,   0,1.0000
 1852,'1 ',     9.443,    -0.807,    -0.807,    -0.807,1.05000,    0,   100.000,   0.00000,   1.00000,   0.00000,   0.00000,1.00000,1,  100.0,    13.994,     0.000,   1,1.0000,   0,1.0000,   0,1.0000,   0,1.0000
 1871,'1 ',    86.871,    52.081,   148.000,   -92.000,1.04607, 1862,   100.000,   0.00000,   1.00000,   0.00000,   0.00000,1.00000,1,   36.9,   195.000,     0.375,   1,1.0000,   0,1.0000,   0,1.0000,   0,1.0000
 1872,'1 ',     0.000,     0.000,   157.000,   -87.000,1.04607, 1855,   100.000,   0.00000,   1.00000,   0.00000,   0.00000,1.00000,1,   37.5,   185.340,     0.000,   1,1.0000,   0,1.0000,   0,1.0000,   0,1.0000
 1873,'1 ',   160.444,    51.213,   117.771,   -48.765,1.04607, 1866,   100.000,   0.00000,   1.00000,   0.00000,   0.00000,1.00000,1,   25.6,   185.000,     0.600,   1,1.0000,   0,1.0000,   0,1.0000,   0,1.0000
 1902,'1 ',     0.000,     0.000,    11.500,    -7.700,1.03150, 1901,   100.000,   0.00000,   1.00000,   0.00000,   0.00000,1.00000,1,   50.0,    20.692,    -0.913,   1,1.0000,   0,1.0000,   0,1.0000,   0,1.0000
 1903,'1 ',     0.000,     0.000,    11.500,    -7.700,1.03150, 1901,   100.000,   0.00000,   1.00000,   0.00000,   0.00000,1.00000,1,   50.0,    21.823,    -0.638,   1,1.0000,   0,1.0000,   0,1.0000,   0,1.0000
 1919,'1 ',    41.310,    -6.824,    38.870,   -26.000,1.03381, 1916,   100.000,   0.00000,   1.00000,   0.00000,   0.00000,1.00000,1,  100.0,    53.610,     0.000,   1,1.0000,   0,1.0000,   0,1.0000,   0,1.0000
 1934,'1 ',    17.976,    -1.995,     7.660,    -4.780,1.03125,    0,   100.000,   0.00000,   1.00000,   0.00000,   0.00000,1.00000,1,   68.5,    20.400,     0.000,   1,1.0000,   0,1.0000,   0,1.0000,   0,1.0000
 1934,'2 ',     0.801,     0.000,     0.000,     0.000,1.03125,    0,   100.000,   0.00000,   1.00000,   0.00000,   0.00000,1.00000,1,  100.0,     1.890,     0.000,   1,1.0000,   0,1.0000,   0,1.0000,   0,1.0000
 1934,'3 ',     2.042,     0.000,     0.000,     0.000,1.03125,    0,   100.000,   0.00000,   1.00000,   0.00000,   0.00000,1.00000,1,  100.0,     4.016,     0.000,   1,1.0000,   0,1.0000,   0,1.0000,   0,1.0000
 1934,'4 ',     4.640,    -0.920,     3.520,    -2.200,1.03125,    0,   100.000,   0.00000,   1.00000,   0.00000,   0.00000,1.00000,1,   31.5,     8.000,     0.000,   1,1.0000,   0,1.0000,   0,1.0000,   0,1.0000
 1934,'5 ',     9.336,    -2.700,    -2.700,    -2.700,1.03125,    0,   100.000,   0.00000,   1.00000,   0.00000,   0.00000,1.00000,1,  100.0,    20.069,     0.000,   1,1.0000,   0,1.0000,   0,1.0000,   0,1.0000
 2130,'1 ',    75.085,     0.515,     0.515,     0.515,1.02276,    0,   100.000,   0.00000,   1.00000,   0.00000,   0.00000,1.00000,1,  100.0,    94.222,    -3.975,   1,1.0000,   0,1.0000,   0,1.0000,   0,1.0000
 2132,'1 ',    72.378,    10.974,    10.974,    10.974,1.03779,    0,   100.000,   0.00000,   1.00000,   0.00000,   0.00000,1.00000,1,  100.0,    91.643,    -9.135,   1,1.0000,   0,1.0000,   0,1.0000,   0,1.0000
 2134,'1 ',   105.952,    12.960,    12.960,    12.960,1.03554,    0,   100.000,   0.00000,   1.00000,   0.00000,   0.00000,1.00000,1,  100.0,   146.000,    -1.753,   1,1.0000,   0,1.0000,   0,1.0000,   0,1.0000
 2136,'1 ',    66.850,    10.036,    10.036,    10.036,1.03709,    0,   100.000,   0.00000,   1.00000,   0.00000,   0.00000,1.00000,1,  100.0,    90.120,    -7.027,   1,1.0000,   0,1.0000,   0,1.0000,   0,1.0000
 2138,'1 ',    94.054,    13.557,    13.557,    13.557,1.03728,    0,   100.000,   0.00000,   1.00000,   0.00000,   0.00000,1.00000,1,  100.0,   146.000,    -1.453,   1,1.0000,   0,1.0000,   0,1.0000,   0,1.0000
 2139,'1 ',    78.959,    13.911,    13.911,    13.911,1.04107,    0,   100.000,   0.00000,   1.00000,   0.00000,   0.00000,1.00000,1,  100.0,    96.562,    -5.265,   1,1.0000,   0,1.0000,   0,1.0000,   0,1.0000
 2173,'1 ',     4.000,     0.538,     0.538,     0.538,1.00000,    0,   100.000,   0.00000,   1.00000,   0.00000,   0.00000,1.00000,1,  100.0,     5.900,    -1.132,   1,1.0000,   0,1.0000,   0,1.0000,   0,1.0000
 2286,'1 ',   130.981,    11.895,   128.153,   -20.000,1.01819, 2287,   100.000,   0.00000,   1.00000,   0.00000,   0.00000,1.00000,1,  100.0,   185.000,    -1.490,   1,1.0000,   0,1.0000,   0,1.0000,   0,1.0000
 2298,'1 ',   100.578,     0.000,    91.176,     0.000,1.00566,    0,   100.000,   0.00000,   1.00000,   0.00000,   0.00000,1.00000,1,  100.0,   116.010,     4.036,   1,1.0000,   0,1.0000,   0,1.0000,   0,1.0000
 2312,'1 ',     0.000,     0.000,    23.000,   -13.000,1.00000,    0,   100.000,   0.00000,   1.00000,   0.00000,   0.00000,1.00000,1,  100.0,    25.800,    -0.027,   1,1.0000,   0,1.0000,   0,1.0000,   0,1.0000
 2430,'1 ',    17.399,     0.000,     0.000,     0.000,1.00000,    0,   100.000,   0.00000,   1.00000,   0.00000,   0.00000,1.00000,1,  100.0,    19.990,     0.000,   1,1.0000,   0,1.0000,   0,1.0000,   0,1.0000
...